psse/psse.seq
0,  32           / PSS®E-32.0    THU, SEP 06 2012  13:23
     1,'1 ', 1.00000E+09, 1.00000E+09
     2,'1 ', 1.00000E+09, 1.00000E+09
     3,'1 ', 1.00000E+09, 1.00000E+09
    11,'1 ', 2.83000E-03, 3.20890E-01
    12,'2 ', 2.83000E-03, 3.20890E-01
    21,'1 ', 2.19000E-03, 3.10590E-01
    22,'2 ', 2.19000E-03, 3.10590E-01
   101,'1 ', 2.36000E-03, 2.74790E-01
   102,'2 ', 2.35000E-03, 2.89200E-01
   103,'3 ', 1.77000E-03, 2.77010E-01
   104,'4 ', 2.35000E-03, 2.61000E-01
   221,'1 ', 3.18000E-03, 2.92830E-01
   222,'2 ', 2.88000E-03, 1.89450E-01
   301,'1 ', 6.18900E-04, 1.43846E-01
   302,'2 ', 6.18900E-04, 1.43846E-01
   303,'3 ', 6.18900E-04, 1.43846E-01
   304,'1 ', 6.18900E-04, 1.43846E-01
   305,'2 ', 6.19000E-04, 1.43846E-01
   306,'3 ', 6.19000E-04, 1.43846E-01
   307,'1 ', 1.50670E-03, 1.95918E-01
   309,'2 ', 1.50670E-03, 1.95918E-01
   311,'1 ', 1.50670E-03, 1.95918E-01
   312,'2 ', 1.50670E-03, 1.95918E-01
   313,'1 ', 1.50700E-03, 1.95918E-01
   314,'2 ', 1.50700E-03, 1.95918E-01
   315,'1 ', 1.50700E-03, 1.95918E-01
   316,'2 ', 1.50700E-03, 1.95918E-01
   321,'S ', 8.45900E-04, 1.85385E-01
   322,'S ', 8.46000E-04, 1.85385E-01
   323,'S ', 1.52100E-03, 1.98025E-01
   324,'S ', 1.52100E-03, 1.98025E-01
   325,'S ', 1.52100E-03, 1.98025E-01
   326,'S ', 1.52100E-03, 1.98025E-01
   411,'1 ', 3.05000E-03, 3.18350E-01
   451,'1 ', 3.35000E-03, 2.63400E-01
   452,'2 ', 3.35000E-03, 2.63400E-01
   531,'1 ', 1.36000E-03, 1.38500E-01
   532,'2 ', 1.36000E-03, 1.38500E-01
   533,'3 ', 1.36000E-03, 1.38500E-01
   534,'4 ', 1.36000E-03, 1.38500E-01
   535,'5 ', 1.36000E-03, 1.44040E-01
   536,'6 ', 1.36000E-03, 1.44040E-01
   537,'7 ', 1.36000E-03, 1.44040E-01
   538,'8 ', 1.36000E-03, 1.44040E-01
   539,'9 ', 2.60000E-03, 2.30470E-01
   541,'A ', 2.60000E-03, 2.30470E-01
   544,'1 ', 2.39200E-03, 1.39900E-01
   545,'1 ', 2.39200E-03, 1.39900E-01
   546,'1 ', 2.39200E-03, 1.39900E-01
   547,'1 ', 2.39200E-03, 1.39900E-01
   603,'1 ', 2.32000E-03, 3.04940E-01
   604,'2 ', 2.32000E-03, 3.04940E-01
   605,'3 ', 2.32000E-03, 3.04940E-01
   606,'S ', 1.37200E-03, 1.28970E-01
   607,'1 ', 2.32000E-03, 3.04940E-01
   608,'2 ', 2.32000E-03, 3.04940E-01
   609,'3 ', 2.32000E-03, 3.04940E-01
   611,'S ', 1.37200E-03, 1.28970E-01
   612,'1 ', 1.34000E-03, 1.53020E-01
   613,'2 ', 1.34000E-03, 1.53020E-01
   614,'3 ', 1.34000E-03, 1.53020E-01
   615,'S ', 1.24300E-03, 1.20230E-01
   616,'1 ', 2.98000E-03, 1.69410E-01
   617,'2 ', 2.98000E-03, 1.69410E-01
   618,'3 ', 2.98000E-03, 1.69410E-01
   619,'S ', 6.65000E-04, 1.47550E-01
   621,'1 ', 2.98000E-03, 1.69410E-01
   622,'2 ', 2.98000E-03, 1.69410E-01
   623,'3 ', 2.98000E-03, 1.69410E-01
   624,'S ', 6.65000E-04, 1.47550E-01
   625,'1 ', 1.02000E-03, 1.20230E-01
   626,'2 ', 1.02000E-03, 1.20230E-01
   627,'S ', 1.02000E-03, 1.20230E-01
   701,'1 ', 2.80000E-03, 1.60000E-01
   702,'2 ', 2.80000E-03, 1.60000E-01
   703,'3 ', 2.80000E-03, 1.60000E-01
   704,'4 ', 2.80000E-03, 1.60000E-01
   711,'1 ', 1.80000E-03, 1.80000E-01
   712,'2 ', 1.80000E-03, 1.80000E-01
   713,'3 ', 1.80000E-03, 1.80000E-01
   714,'4 ', 1.80000E-03, 1.80000E-01
   715,'5 ', 1.80000E-03, 1.80000E-01
   716,'6 ', 1.80000E-03, 1.80000E-01
   717,'G ', 4.67000E-03, 2.50000E-01
   801,'1 ', 6.47000E-03, 2.17750E-01
   802,'2 ', 3.34000E-03, 4.01690E-01
   803,'3 ', 3.34000E-03, 4.01690E-01
   804,'4 ', 1.85000E-03, 2.23890E-01
   811,'5 ', 3.14000E-03, 2.62310E-01
   841,'1 ', 2.95000E-03, 2.73240E-01
   842,'2 ', 4.42000E-03, 2.73240E-01
   843,'3 ', 3.21000E-03, 2.73240E-01
   851,'1 ', 4.31000E-03, 2.35200E-01
   852,'1 ', 4.41000E-03, 2.97420E-01
   861,'1 ', 4.62000E-03, 2.77670E-01
   862,'1 ', 4.62000E-03, 2.77670E-01
   863,'1 ', 4.62000E-03, 2.77670E-01
   864,'1 ', 4.62000E-03, 2.77670E-01
   865,'1 ', 4.62000E-03, 2.77670E-01
   871,'G ', 4.89900E-03, 3.80910E-01
   873,'3 ', 7.87100E-03, 4.17050E-01
   875,'2 ', 3.05000E-03, 3.18350E-01
   881,'1 ', 3.01900E-03, 2.08760E-01
   882,'2 ', 3.01900E-03, 2.08760E-01
   891,'1 ', 2.52100E-03, 1.42090E-01
   892,'1 ', 2.52100E-03, 1.42090E-01
   895,'1 ', 2.73000E-03, 2.44830E-01
   896,'2 ', 2.73000E-03, 2.44830E-01
   897,'3 ', 2.73000E-03, 2.44830E-01
   898,'4 ', 2.73000E-03, 2.44830E-01
  1001,'1 ', 3.01590E-03, 2.31731E-01
  1002,'2 ', 3.01600E-03, 2.31731E-01
  1007,'1 ', 9.00000E-04, 1.20000E-01
  1008,'1 ', 9.00000E-04, 1.20000E-01
  1077,'1 ', 4.20000E-04, 1.34400E-01
  1078,'2 ', 4.20000E-04, 1.34400E-01
  1078,'3 ', 4.20000E-04, 1.34400E-01
  1079,'S ', 9.00000E-04, 1.55120E-01
  1081,'1 ', 1.77000E-03, 2.74790E-01
  1082,'2 ', 1.77000E-03, 2.74790E-01
  1083,'3 ', 3.33000E-03, 2.04990E-01
  1084,'4 ', 3.33000E-03, 2.04990E-01
  1087,'1 ', 4.20000E-04, 1.34400E-01
  1088,'2 ', 4.20000E-04, 1.34400E-01
  1088,'3 ', 4.20000E-04, 1.34400E-01
  1089,'S ', 9.00000E-04, 1.55120E-01
  1091,'1 ', 4.20000E-04, 1.34400E-01
  1092,'2 ', 4.20000E-04, 1.34400E-01
  1092,'3 ', 4.20000E-04, 1.34400E-01
  1093,'S ', 9.00000E-04, 1.55120E-01
  1094,'1 ', 4.20000E-04, 1.34400E-01
  1095,'2 ', 4.20000E-04, 1.34400E-01
  1095,'3 ', 4.20000E-04, 1.34400E-01
  1096,'S ', 9.00000E-04, 1.55120E-01
  1097,'1 ', 4.20000E-04, 1.34400E-01
  1098,'2 ', 4.20000E-04, 1.34400E-01
  1098,'3 ', 4.20000E-04, 1.34400E-01
  1099,'S ', 9.00000E-04, 1.55120E-01
  1103,'3 ', 1.77000E-03, 2.75550E-01
  1104,'4 ', 1.77000E-03, 2.75550E-01
  1105,'5 ', 2.36000E-03, 2.77190E-01
  1106,'6 ', 2.72000E-03, 1.45300E-01
  1201,'1 ', 4.00000E-03, 1.70500E-01
  1202,'2 ', 4.00000E-03, 1.70500E-01
  1203,'S ', 3.38000E-03, 1.75000E-01
  1204,'1 ', 4.00000E-03, 1.70500E-01
  1205,'2 ', 4.00000E-03, 1.70500E-01
  1206,'S ', 3.38000E-03, 1.75000E-01
  1211,'1 ', 3.62500E-03, 1.54110E-01
  1212,'2 ', 3.62500E-03, 1.54110E-01
  1213,'S ', 2.83500E-03, 1.18040E-01
  1214,'1 ', 3.86000E-03, 2.10530E-01
  1401,'G ', 1.00000E+09, 1.00000E+09
  1752,'1 ', 2.22000E-02, 4.85300E-01
  2682,'1 ', 1.00000E+09, 1.00000E+09
  2802,'1 ', 1.00000E+09, 1.00000E+09
  2902,'1 ', 7.59000E-03, 2.14550E-01
  2952,'1 ', 5.67000E-02, 9.02700E-01
  3102,'1 ', 8.03000E-02, 1.45490E+00
  3142,'1 ', 1.75400E-01, 2.32850E-01
  3162,'1 ', 1.51000E-02, 1.98100E-01
  3222,'1 ', 1.29200E-02, 2.20270E-01
  3282,'1 ', 3.14000E-02, 8.06000E-01
  3292,'1 ', 3.71000E-02, 4.53300E-01
  3302,'1 ', 2.82000E-02, 5.75300E-01
  3332,'1 ', 2.32000E-02, 3.90200E-01
  3342,'1 ', 6.10000E-02, 6.35600E-01
  3352,'1 ', 1.59000E-02, 2.26000E-01
  3362,'1 ', 1.89000E-02, 3.03700E-01
  3372,'1 ', 1.40000E-02, 4.89200E-01
  3402,'1 ', 3.36700E-01, 2.45760E+00
  3412,'1 ', 1.64000E-02, 3.31100E-01
  3422,'1 ', 2.53000E-02, 5.05000E-01
  3452,'1 ', 1.41600E-02, 4.30800E-01
  3482,'1 ', 2.14100E-02, 8.48239E+00
  3522,'1 ', 3.52000E-03, 3.16690E-01
  3552,'1 ', 2.71200E-02, 4.10200E-01
  3662,'1 ', 1.40100E-02, 2.90020E-01
  3682,'1 ', 1.26000E-02, 1.75700E-01
  3702,'1 ', 4.33000E-03, 1.88450E-01
  3722,'1 ', 1.30000E-02, 4.75200E-01
  3732,'1 ', 1.06000E-02, 1.69570E+00
  3762,'1 ', 1.00000E+09, 1.00000E+09
  3792,'1 ', 7.67000E-02, 1.06400E+00
  3812,'1 ', 1.19000E-02, 2.20800E-01
  3882,'1 ', 3.82000E-02, 5.65050E-01
  3892,'1 ', 1.21000E-02, 2.14000E-01
  3932,'1 ', 1.00000E+09, 1.00000E+09
  3952,'1 ', 2.90000E-03, 4.02000E-02
  3972,'1 ', 1.04000E-02, 1.04500E-01
  8010,'1 ', 2.02000E-02, 8.07100E-01
  8200,'1 ', 1.13000E-02, 4.90700E-01
  8442,'1 ', 2.21000E-03, 1.85320E-01
  8443,'1 ', 2.15000E-03, 1.75000E-01
  8444,'1 ', 2.43000E-03, 1.93000E-01
  8548,'1 ', 0.00000E+00, 1.00000E+00
  8566,'1 ', 1.16000E-02, 5.35700E-01
  8615,'1 ', 0.00000E+00, 1.00000E+00
  9101,'1 ', 1.09800E-03, 1.56250E-01
...
0  / END OF POSITIVE SEQ. MACHINE IMPEDANCE DATA, BEGIN NEGATIVE SEQ. MACHINE DATA
     1,'1 ', 1.00000E+09, 1.00000E+09
     2,'1 ', 1.00000E+09, 1.00000E+09
     3,'1 ', 1.00000E+09, 1.00000E+09
    11,'1 ', 2.83000E-03, 3.20890E-01
    12,'2 ', 2.83000E-03, 3.20890E-01
    21,'1 ', 2.19000E-03, 3.10590E-01
    22,'2 ', 2.19000E-03, 3.10590E-01
   101,'1 ', 2.36000E-03, 2.74790E-01
   102,'2 ', 2.35000E-03, 2.89200E-01
   103,'3 ', 1.77000E-03, 2.77010E-01
   104,'4 ', 2.35000E-03, 2.61000E-01
   221,'1 ', 3.18000E-03, 2.92830E-01
   222,'2 ', 2.88000E-03, 1.89450E-01
   301,'1 ', 6.19000E-04, 1.43846E-01
   302,'2 ', 6.19000E-04, 1.43846E-01
   303,'3 ', 6.19000E-04, 1.43846E-01
   304,'1 ', 6.19000E-04, 1.43846E-01
   305,'2 ', 6.19000E-04, 1.43846E-01
   306,'3 ', 6.19000E-04, 1.43846E-01
   307,'1 ', 1.50700E-03, 1.95918E-01
   309,'2 ', 1.50700E-03, 1.95918E-01
   311,'1 ', 1.50700E-03, 1.95918E-01
   312,'2 ', 1.50700E-03, 1.95918E-01
   313,'1 ', 1.50700E-03, 1.95918E-01
   314,'2 ', 1.50700E-03, 1.95918E-01
   315,'1 ', 1.50700E-03, 1.95918E-01
   316,'2 ', 1.50700E-03, 1.95918E-01
   321,'S ', 8.46000E-04, 1.85385E-01
   322,'S ', 8.46000E-04, 1.85385E-01
   323,'S ', 1.52100E-03, 1.98025E-01
   324,'S ', 1.52100E-03, 1.98025E-01
   325,'S ', 1.52100E-03, 1.98025E-01
   326,'S ', 1.52100E-03, 1.98025E-01
   411,'1 ', 3.05000E-03, 3.18350E-01
   451,'1 ', 3.35000E-03, 2.63400E-01
   452,'2 ', 3.35000E-03, 2.63400E-01
   531,'1 ', 1.36000E-03, 1.38500E-01
   532,'2 ', 1.36000E-03, 1.38500E-01
   533,'3 ', 1.36000E-03, 1.38500E-01
   534,'4 ', 1.36000E-03, 1.38500E-01
   535,'5 ', 1.36000E-03, 1.44040E-01
   536,'6 ', 1.36000E-03, 1.44040E-01
   537,'7 ', 1.36000E-03, 1.44040E-01
   538,'8 ', 1.36000E-03, 1.44040E-01
   539,'9 ', 2.60000E-03, 2.30470E-01
   541,'A ', 2.60000E-03, 2.30470E-01
   544,'1 ', 2.39200E-03, 1.39900E-01
   545,'1 ', 2.39200E-03, 1.39900E-01
   546,'1 ', 2.39200E-03, 1.39900E-01
   547,'1 ', 2.39200E-03, 1.39900E-01
   603,'1 ', 2.32000E-03, 3.04940E-01
   604,'2 ', 2.32000E-03, 3.04940E-01
   605,'3 ', 2.32000E-03, 3.04940E-01
   606,'S ', 1.37200E-03, 1.28970E-01
   607,'1 ', 2.32000E-03, 3.04940E-01
   608,'2 ', 2.32000E-03, 3.04940E-01
   609,'3 ', 2.32000E-03, 3.04940E-01
   611,'S ', 1.37200E-03, 1.28970E-01
   612,'1 ', 1.34000E-03, 1.53020E-01
   613,'2 ', 1.34000E-03, 1.53020E-01
   614,'3 ', 1.34000E-03, 1.53020E-01
   615,'S ', 1.24300E-03, 1.20230E-01
   616,'1 ', 2.98000E-03, 1.69410E-01
   617,'2 ', 2.98000E-03, 1.69410E-01
   618,'3 ', 2.98000E-03, 1.69410E-01
   619,'S ', 6.65000E-04, 1.47550E-01
   621,'1 ', 2.98000E-03, 1.69410E-01
   622,'2 ', 2.98000E-03, 1.69410E-01
   623,'3 ', 2.98000E-03, 1.69410E-01
   624,'S ', 6.65000E-04, 1.47550E-01
   625,'1 ', 1.02000E-03, 1.20230E-01
   626,'2 ', 1.02000E-03, 1.20230E-01
   627,'S ', 1.02000E-03, 1.20230E-01
   701,'1 ', 2.80000E-03, 1.60000E-01
   702,'2 ', 2.80000E-03, 1.60000E-01
   703,'3 ', 2.80000E-03, 1.60000E-01
   704,'4 ', 2.80000E-03, 1.60000E-01
   711,'1 ', 1.80000E-03, 1.80000E-01
   712,'2 ', 1.80000E-03, 1.80000E-01
   713,'3 ', 1.80000E-03, 1.80000E-01
   714,'4 ', 1.80000E-03, 1.80000E-01
   715,'5 ', 1.80000E-03, 1.80000E-01
   716,'6 ', 1.80000E-03, 1.80000E-01
   717,'G ', 4.67000E-03, 2.50000E-01
   801,'1 ', 6.47000E-03, 2.17750E-01
   802,'2 ', 3.34000E-03, 4.01690E-01
   803,'3 ', 3.34000E-03, 4.01690E-01
   804,'4 ', 1.85000E-03, 2.23890E-01
   811,'5 ', 3.14000E-03, 2.62310E-01
   841,'1 ', 2.95000E-03, 2.73240E-01
   842,'2 ', 4.42000E-03, 2.73240E-01
   843,'3 ', 3.21000E-03, 2.73240E-01
   851,'1 ', 4.31000E-03, 2.35200E-01
   852,'1 ', 4.41000E-03, 2.97420E-01
   861,'1 ', 4.62000E-03, 2.77670E-01
   862,'1 ', 4.62000E-03, 2.77670E-01
   863,'1 ', 4.62000E-03, 2.77670E-01
   864,'1 ', 4.62000E-03, 2.77670E-01
   865,'1 ', 4.62000E-03, 2.77670E-01
   871,'G ', 4.89900E-03, 3.80910E-01
   873,'3 ', 7.87100E-03, 4.17050E-01
   875,'2 ', 3.05000E-03, 3.18350E-01
   881,'1 ', 3.01900E-03, 2.08760E-01
   882,'2 ', 3.01900E-03, 2.08760E-01
   891,'1 ', 2.52100E-03, 1.42090E-01
   892,'1 ', 2.52100E-03, 1.42090E-01
   895,'1 ', 2.73000E-03, 2.44830E-01
   896,'2 ', 2.73000E-03, 2.44830E-01
   897,'3 ', 2.73000E-03, 2.44830E-01
   898,'4 ', 2.73000E-03, 2.44830E-01
  1001,'1 ', 3.01600E-03, 2.31731E-01
  1002,'2 ', 3.01600E-03, 2.31731E-01
  1007,'1 ', 9.00000E-04, 1.20000E-01
  1008,'1 ', 9.00000E-04, 1.20000E-01
  1077,'1 ', 4.20000E-04, 1.34400E-01
  1078,'2 ', 4.20000E-04, 1.34400E-01
  1078,'3 ', 4.20000E-04, 1.34400E-01
  1079,'S ', 9.00000E-04, 1.55120E-01
  1081,'1 ', 1.77000E-03, 2.74790E-01
  1082,'2 ', 1.77000E-03, 2.74790E-01
  1083,'3 ', 3.33000E-03, 2.04990E-01
  1084,'4 ', 3.33000E-03, 2.04990E-01
  1087,'1 ', 4.20000E-04, 1.34400E-01
  1088,'2 ', 4.20000E-04, 1.34400E-01
  1088,'3 ', 4.20000E-04, 1.34400E-01
  1089,'S ', 9.00000E-04, 1.55120E-01
  1091,'1 ', 4.20000E-04, 1.34400E-01
  1092,'2 ', 4.20000E-04, 1.34400E-01
  1092,'3 ', 4.20000E-04, 1.34400E-01
  1093,'S ', 9.00000E-04, 1.55120E-01
  1094,'1 ', 4.20000E-04, 1.34400E-01
  1095,'2 ', 4.20000E-04, 1.34400E-01
  1095,'3 ', 4.20000E-04, 1.34400E-01
  1096,'S ', 9.00000E-04, 1.55120E-01
  1097,'1 ', 4.20000E-04, 1.34400E-01
  1098,'2 ', 4.20000E-04, 1.34400E-01
  1098,'3 ', 4.20000E-04, 1.34400E-01
  1099,'S ', 9.00000E-04, 1.55120E-01
  1103,'3 ', 1.77000E-03, 2.75550E-01
  1104,'4 ', 1.77000E-03, 2.75550E-01
  1105,'5 ', 2.36000E-03, 2.77190E-01
  1106,'6 ', 2.72000E-03, 1.45300E-01
  1201,'1 ', 4.00000E-03, 1.70500E-01
  1202,'2 ', 4.00000E-03, 1.70500E-01
  1203,'S ', 3.38000E-03, 1.75000E-01
  1204,'1 ', 4.00000E-03, 1.70500E-01
  1205,'2 ', 4.00000E-03, 1.70500E-01
  1206,'S ', 3.38000E-03, 1.75000E-01
  1211,'1 ', 3.62500E-03, 1.54110E-01
  1212,'2 ', 3.62500E-03, 1.54110E-01
  1213,'S ', 2.83500E-03, 1.18040E-01
  1214,'1 ', 3.86000E-03, 2.10530E-01
  1401,'G ', 1.00000E+09, 1.00000E+09
  1752,'1 ', 2.22000E-02, 4.85300E-01
  2682,'1 ', 1.00000E+09, 1.00000E+09
  2802,'1 ', 1.00000E+09, 1.00000E+09
  2902,'1 ', 7.59000E-03, 2.14550E-01
  2952,'1 ', 5.67000E-02, 9.02700E-01
  3102,'1 ', 8.03000E-02, 1.45490E+00
  3142,'1 ', 1.75400E-01, 2.32850E-01
  3162,'1 ', 1.51000E-02, 1.98100E-01
  3222,'1 ', 1.29200E-02, 2.20270E-01
  3282,'1 ', 3.14000E-02, 8.06000E-01
  3292,'1 ', 3.71000E-02, 4.53300E-01
  3302,'1 ', 2.82000E-02, 5.75300E-01
  3332,'1 ', 2.32000E-02, 3.90200E-01
  3342,'1 ', 6.10000E-02, 6.35600E-01
  3352,'1 ', 1.59000E-02, 2.26000E-01
  3362,'1 ', 1.89000E-02, 3.03700E-01
  3372,'1 ', 1.40000E-02, 4.89200E-01
  3402,'1 ', 3.36700E-01, 2.45760E+00
  3412,'1 ', 1.64000E-02, 3.31100E-01
  3422,'1 ', 2.53000E-02, 5.05000E-01
  3452,'1 ', 1.41600E-02, 4.30800E-01
  3482,'1 ', 2.14100E-02, 8.48239E+00
  3522,'1 ', 3.52000E-03, 3.16690E-01
  3552,'1 ', 2.71200E-02, 4.10200E-01
  3662,'1 ', 1.40100E-02, 2.90020E-01
  3682,'1 ', 1.26000E-02, 1.75700E-01
  3702,'1 ', 4.33000E-03, 1.88450E-01
  3722,'1 ', 1.30000E-02, 4.75200E-01
  3732,'1 ', 1.06000E-02, 1.69570E+00
  3762,'1 ', 1.00000E+09, 1.00000E+09
  3792,'1 ', 7.67000E-02, 1.06400E+00
  3812,'1 ', 1.19000E-02, 2.20800E-01
  3882,'1 ', 3.82000E-02, 5.65050E-01
  3892,'1 ', 1.21000E-02, 2.14000E-01
  3932,'1 ', 1.00000E+09, 1.00000E+09
  3952,'1 ', 2.90000E-03, 4.02000E-02
  3972,'1 ', 1.04000E-02, 1.04500E-01
  8010,'1 ', 2.02000E-02, 8.07100E-01
  8200,'1 ', 1.13000E-02, 4.90700E-01
  8442,'1 ', 2.21000E-03, 1.85320E-01
  8443,'1 ', 2.15000E-03, 1.75000E-01
  8444,'1 ', 2.43000E-03, 1.93000E-01
  8548,'1 ', 0.00000E+00, 1.00000E+00
  8566,'1 ', 1.16000E-02, 5.35700E-01
  8615,'1 ', 0.00000E+00, 1.00000E+00
  9101,'1 ', 1.09800E-03, 1.56250E-01
  9102,'2 ', 1.09800E-03, 1.56250E-01
...
0  / END OF NEGATIVE SEQ. MACHINE IMPEDANCE DATA, BEGIN ZERO SEQ. MACHINE DATA
     1,'1 ', 1.00000E+09, 1.00000E+09
     2,'1 ', 1.00000E+09, 1.00000E+09
     3,'1 ', 1.00000E+09, 1.00000E+09
    11,'1 ', 2.83000E-03, 3.20890E-01
    12,'2 ', 2.83000E-03, 3.20890E-01
    21,'1 ', 2.19000E-03, 3.10590E-01
    22,'2 ', 2.19000E-03, 3.10590E-01
   101,'1 ', 2.36000E-03, 2.74790E-01
   102,'2 ', 2.35000E-03, 2.89200E-01
   103,'3 ', 1.77000E-03, 2.77010E-01
   104,'4 ', 2.35000E-03, 2.61000E-01
   221,'1 ', 3.18000E-03, 2.92830E-01
   222,'2 ', 2.88000E-03, 1.89450E-01
   301,'1 ', 6.19000E-04, 1.43846E-01
   302,'2 ', 6.19000E-04, 1.43846E-01
   303,'3 ', 6.19000E-04, 1.43846E-01
   304,'1 ', 6.19000E-04, 1.43846E-01
   305,'2 ', 6.19000E-04, 1.43846E-01
   306,'3 ', 6.19000E-04, 1.43846E-01
   307,'1 ', 1.50700E-03, 1.95918E-01
   309,'2 ', 1.50700E-03, 1.95918E-01
   311,'1 ', 1.50700E-03, 1.95918E-01
   312,'2 ', 1.50700E-03, 1.95918E-01
   313,'1 ', 1.50700E-03, 1.95918E-01
   314,'2 ', 1.50700E-03, 1.95918E-01
   315,'1 ', 1.50700E-03, 1.95918E-01
   316,'2 ', 1.50700E-03, 1.95918E-01
   321,'S ', 8.46000E-04, 1.85385E-01
   322,'S ', 8.46000E-04, 1.85385E-01
   323,'S ', 1.52100E-03, 1.98025E-01
   324,'S ', 1.52100E-03, 1.98025E-01
   325,'S ', 1.52100E-03, 1.98025E-01
   326,'S ', 1.52100E-03, 1.98025E-01
   411,'1 ', 3.05000E-03, 3.18350E-01
   451,'1 ', 3.35000E-03, 2.63400E-01
   452,'2 ', 3.35000E-03, 2.63400E-01
   531,'1 ', 1.36000E-03, 1.38500E-01
   532,'2 ', 1.36000E-03, 1.38500E-01
   533,'3 ', 1.36000E-03, 1.38500E-01
   534,'4 ', 1.36000E-03, 1.38500E-01
   535,'5 ', 1.36000E-03, 1.44040E-01
   536,'6 ', 1.36000E-03, 1.44040E-01
   537,'7 ', 1.36000E-03, 1.44040E-01
   538,'8 ', 1.36000E-03, 1.44040E-01
   539,'9 ', 2.60000E-03, 2.30470E-01
   541,'A ', 2.60000E-03, 2.30470E-01
   544,'1 ', 2.39200E-03, 1.39900E-01
   545,'1 ', 2.39200E-03, 1.39900E-01
   546,'1 ', 2.39200E-03, 1.39900E-01
   547,'1 ', 2.39200E-03, 1.39900E-01
   603,'1 ', 2.32000E-03, 3.04940E-01
   604,'2 ', 2.32000E-03, 3.04940E-01
   605,'3 ', 2.32000E-03, 3.04940E-01
   606,'S ', 1.37200E-03, 1.28970E-01
   607,'1 ', 2.32000E-03, 3.04940E-01
   608,'2 ', 2.32000E-03, 3.04940E-01
   609,'3 ', 2.32000E-03, 3.04940E-01
   611,'S ', 1.37200E-03, 1.28970E-01
   612,'1 ', 1.34000E-03, 1.53020E-01
   613,'2 ', 1.34000E-03, 1.53020E-01
   614,'3 ', 1.34000E-03, 1.53020E-01
   615,'S ', 1.24300E-03, 1.20230E-01
   616,'1 ', 2.98000E-03, 1.69410E-01
   617,'2 ', 2.98000E-03, 1.69410E-01
   618,'3 ', 2.98000E-03, 1.69410E-01
   619,'S ', 6.65000E-04, 1.47550E-01
   621,'1 ', 2.98000E-03, 1.69410E-01
   622,'2 ', 2.98000E-03, 1.69410E-01
   623,'3 ', 2.98000E-03, 1.69410E-01
   624,'S ', 6.65000E-04, 1.47550E-01
   625,'1 ', 1.02000E-03, 1.20230E-01
   626,'2 ', 1.02000E-03, 1.20230E-01
   627,'S ', 1.02000E-03, 1.20230E-01
   701,'1 ', 2.80000E-03, 1.60000E-01
   702,'2 ', 2.80000E-03, 1.60000E-01
   703,'3 ', 2.80000E-03, 1.60000E-01
   704,'4 ', 2.80000E-03, 1.60000E-01
   711,'1 ', 1.80000E-03, 1.80000E-01
   712,'2 ', 1.80000E-03, 1.80000E-01
   713,'3 ', 1.80000E-03, 1.80000E-01
   714,'4 ', 1.80000E-03, 1.80000E-01
   715,'5 ', 1.80000E-03, 1.80000E-01
   716,'6 ', 1.80000E-03, 1.80000E-01
   717,'G ', 4.67000E-03, 2.50000E-01
   801,'1 ', 6.47000E-03, 2.17750E-01
   802,'2 ', 3.34000E-03, 4.01690E-01
   803,'3 ', 3.34000E-03, 4.01690E-01
   804,'4 ', 1.85000E-03, 2.23890E-01
   811,'5 ', 3.14000E-03, 2.62310E-01
   841,'1 ', 2.95000E-03, 2.73240E-01
   842,'2 ', 4.42000E-03, 2.73240E-01
   843,'3 ', 3.21000E-03, 2.73240E-01
   851,'1 ', 4.31000E-03, 2.35200E-01
   852,'1 ', 4.41000E-03, 2.97420E-01
   861,'1 ', 4.62000E-03, 2.77670E-01
   862,'1 ', 4.62000E-03, 2.77670E-01
   863,'1 ', 4.62000E-03, 2.77670E-01
   864,'1 ', 4.62000E-03, 2.77670E-01
   865,'1 ', 4.62000E-03, 2.77670E-01
   871,'G ', 4.89900E-03, 3.80910E-01
   873,'3 ', 7.87100E-03, 4.17050E-01
   875,'2 ', 3.05000E-03, 3.18350E-01
   881,'1 ', 3.01900E-03, 2.08760E-01
   882,'2 ', 3.01900E-03, 2.08760E-01
   891,'1 ', 2.52100E-03, 1.42090E-01
   892,'1 ', 2.52100E-03, 1.42090E-01
   895,'1 ', 2.73000E-03, 2.44830E-01
   896,'2 ', 2.73000E-03, 2.44830E-01
   897,'3 ', 2.73000E-03, 2.44830E-01
   898,'4 ', 2.73000E-03, 2.44830E-01
  1001,'1 ', 3.01600E-03, 2.31731E-01
  1002,'2 ', 3.01600E-03, 2.31731E-01
  1007,'1 ', 9.00000E-04, 1.20000E-01
  1008,'1 ', 9.00000E-04, 1.20000E-01
  1077,'1 ', 4.20000E-04, 1.34400E-01
  1078,'2 ', 4.20000E-04, 1.34400E-01
  1078,'3 ', 4.20000E-04, 1.34400E-01
  1079,'S ', 9.00000E-04, 1.55120E-01
  1081,'1 ', 1.77000E-03, 2.74790E-01
  1082,'2 ', 1.77000E-03, 2.74790E-01
  1083,'3 ', 3.33000E-03, 2.04990E-01
  1084,'4 ', 3.33000E-03, 2.04990E-01
  1087,'1 ', 4.20000E-04, 1.34400E-01
  1088,'2 ', 4.20000E-04, 1.34400E-01
  1088,'3 ', 4.20000E-04, 1.34400E-01
  1089,'S ', 9.00000E-04, 1.55120E-01
  1091,'1 ', 4.20000E-04, 1.34400E-01
  1092,'2 ', 4.20000E-04, 1.34400E-01
  1092,'3 ', 4.20000E-04, 1.34400E-01
  1093,'S ', 9.00000E-04, 1.55120E-01
  1094,'1 ', 4.20000E-04, 1.34400E-01
  1095,'2 ', 4.20000E-04, 1.34400E-01
  1095,'3 ', 4.20000E-04, 1.34400E-01
  1096,'S ', 9.00000E-04, 1.55120E-01
  1097,'1 ', 4.20000E-04, 1.34400E-01
  1098,'2 ', 4.20000E-04, 1.34400E-01
  1098,'3 ', 4.20000E-04, 1.34400E-01
  1099,'S ', 9.00000E-04, 1.55120E-01
  1103,'3 ', 1.77000E-03, 2.75550E-01
  1104,'4 ', 1.77000E-03, 2.75550E-01
  1105,'5 ', 2.36000E-03, 2.77190E-01
  1106,'6 ', 2.72000E-03, 1.45300E-01
  1201,'1 ', 4.00000E-03, 1.70500E-01
  1202,'2 ', 4.00000E-03, 1.70500E-01
  1203,'S ', 3.38000E-03, 1.75000E-01
  1204,'1 ', 4.00000E-03, 1.70500E-01
  1205,'2 ', 4.00000E-03, 1.70500E-01
  1206,'S ', 3.38000E-03, 1.75000E-01
  1211,'1 ', 3.62500E-03, 1.54110E-01
  1212,'2 ', 3.62500E-03, 1.54110E-01
  1213,'S ', 2.83500E-03, 1.18040E-01
  1214,'1 ', 3.86000E-03, 2.10530E-01
  1401,'G ', 1.00000E+09, 1.00000E+09
  1752,'1 ', 1.00000E+09, 1.00000E+09
  2682,'1 ', 1.00000E+09, 1.00000E+09
  2802,'1 ', 1.00000E+09, 1.00000E+09
  2902,'1 ', 1.00000E+09, 1.00000E+09
  2952,'1 ', 1.41200E-01, 1.24040E+00
  3102,'1 ', 1.00000E+09, 1.00000E+09
  3142,'1 ', 1.00000E+09, 1.00000E+09
  3162,'1 ', 1.00000E+09, 1.00000E+09
  3222,'1 ', 1.00000E+09, 1.00000E+09
  3282,'1 ', 1.00000E+09, 1.00000E+09
  3292,'1 ', 1.00000E+09, 1.00000E+09
  3302,'1 ', 1.00000E+09, 1.00000E+09
  3332,'1 ', 1.00000E+09, 1.00000E+09
  3342,'1 ', 1.00000E+09, 1.00000E+09
  3352,'1 ', 1.00000E+09, 1.00000E+09
  3362,'1 ', 1.57100E-01, 2.02050E+00
  3372,'1 ', 1.00000E+09, 1.00000E+09
  3402,'1 ', 1.00000E+09, 1.00000E+09
  3412,'1 ', 1.00000E+09, 1.00000E+09
  3422,'1 ', 1.00000E+09, 1.00000E+09
  3452,'1 ', 1.00000E+09, 1.00000E+09
  3482,'1 ', 1.00000E+09, 1.00000E+09
  3522,'1 ', 1.00000E+09, 1.00000E+09
  3552,'1 ', 1.00000E+09, 1.00000E+09
  3662,'1 ', 1.00000E+09, 1.00000E+09
  3682,'1 ', 1.84400E-01, 7.08300E-01
  3702,'1 ', 1.00000E+09, 1.00000E+09
  3722,'1 ', 1.00000E+09, 1.00000E+09
  3732,'1 ', 1.00000E+09, 1.00000E+09
  3762,'1 ', 1.00000E+09, 1.00000E+09
  3792,'1 ', 1.00000E+09, 1.00000E+09
  3812,'1 ', 1.00000E+09, 1.00000E+09
  3882,'1 ', 1.00000E+09, 1.00000E+09
  3892,'1 ', 1.00000E+09, 1.00000E+09
  3932,'1 ', 1.00000E+09, 1.00000E+09
  3952,'1 ', 2.32000E-02, 1.96600E-01
  3972,'1 ', 4.97000E-02, 8.10200E-01
  8010,'1 ', 2.02000E-02, 8.07100E-01
  8200,'1 ', 1.00000E+09, 1.00000E+09
  8442,'1 ', 2.21000E-03, 1.85320E-01
  8443,'1 ', 2.15000E-03, 1.75000E-01
  8444,'1 ', 2.43000E-03, 1.93000E-01
  8548,'1 ', 1.00000E+09, 1.00000E+09
  8566,'1 ', 1.00000E+09, 1.00000E+09
  8615,'1 ', 0.00000E+00, 1.00000E+00
  9101,'1 ', 1.09800E-03, 1.56250E-01
  9102,'2 ', 1.09800E-03, 1.56250E-01
...
0  / END OF ZERO SEQ. MACHINE IMPEDANCE DATA, BEGIN NEGATIVE SEQ. SHUNT DATA
0  / END OF NEGATIVE SEQ. SHUNT DATA, BEGIN ZERO SEQ. SHUNT DATA
0  / END OF ZERO SEQ. SHUNT DATA, BEGIN ZERO SEQ. NON-TRANSFORMER BRANCH DATA
    10,    30,'1 ', 3.50000E-3, 1.09000E-2,    0.00000, 0.00000E+0, 0.00000E+0, 0.00000E+0, 0.00000E+0
    10,  1550,'W ', 5.70000E-3, 1.76000E-2,    0.00000, 0.00000E+0, 0.00000E+0, 0.00000E+0, 0.00000E+0
    10,  1750,'R ', 1.01000E-2, 3.13000E-2,    0.00000, 0.00000E+0, 0.00000E+0, 0.00000E+0, 0.00000E+0
    10,  1750,'W ', 1.01000E-2, 3.13000E-2,    0.00000, 0.00000E+0, 0.00000E+0, 0.00000E+0, 0.00000E+0
    30,   100,'1 ', 2.60000E-3, 8.00000E-3,    0.00000, 0.00000E+0, 0.00000E+0, 0.00000E+0, 0.00000E+0
    30,  1550,'2 ', 4.50000E-3, 1.39000E-2,    0.00000, 0.00000E+0, 0.00000E+0, 0.00000E+0, 0.00000E+0
    30,  1550,'4 ', 3.30000E-3, 1.04000E-2,    0.00000, 0.00000E+0, 0.00000E+0, 0.00000E+0, 0.00000E+0
    40,  1650,'R ', 3.60000E-3, 2.42000E-2,    0.00000, 0.00000E+0, 0.00000E+0, 0.00000E+0, 0.00000E+0
    40,  1650,'W ', 3.70000E-3, 2.43000E-2,    0.00000, 0.00000E+0, 0.00000E+0, 0.00000E+0, 0.00000E+0
    40,  1900,'W ', 1.01000E-2, 6.76000E-2,    0.00000, 0.00000E+0, 0.00000E+0, 0.00000E+0, 0.00000E+0
    40,  1910,'R ', 1.04000E-2, 6.75000E-2,    0.00000, 0.00000E+0, 0.00000E+0, 0.00000E+0, 0.00000E+0
    51,  4127,'1 ', 2.20000E-3, 8.90000E-3,    0.00000, 0.00000E+0, 0.00000E+0, 0.00000E+0, 0.00000E+0
    51,  7511,'1 ', 3.79000E-2, 1.58900E-1,    0.00000, 0.00000E+0, 0.00000E+0, 0.00000E+0, 0.00000E+0
   100,  1550,'1 ', 5.90000E-3, 1.82000E-2,    0.00000, 0.00000E+0, 0.00000E+0, 0.00000E+0, 0.00000E+0
   100,  1650,'R ', 5.80000E-3, 1.79000E-2,    0.00000, 0.00000E+0, 0.00000E+0, 0.00000E+0, 0.00000E+0
   100,  1650,'W ', 5.80000E-3, 1.79000E-2,    0.00000, 0.00000E+0, 0.00000E+0, 0.00000E+0, 0.00000E+0
   208,  7518,'1 ', 1.00000E-4, 3.00000E-4,    0.00000, 0.00000E+0, 0.00000E+0, 0.00000E+0, 0.00000E+0
   220,   239,'1 ', 3.00000E-4, 8.00000E-4,    0.00000, 0.00000E+0, 0.00000E+0, 0.00000E+0, 0.00000E+0
   220,  3281,'M ', 1.96000E-2, 6.08000E-2,    0.00000, 0.00000E+0, 0.00000E+0, 0.00000E+0, 0.00000E+0
   220,  3281,'O ', 1.96000E-2, 6.08000E-2,    0.00000, 0.00000E+0, 0.00000E+0, 0.00000E+0, 0.00000E+0
   220,  3291,'1 ', 4.20000E-3, 1.33000E-2,    0.00000, 0.00000E+0, 0.00000E+0, 0.00000E+0, 0.00000E+0
   220,  3291,'2 ', 4.20000E-3, 1.30000E-2,    0.00000, 0.00000E+0, 0.00000E+0, 0.00000E+0, 0.00000E+0
   220,  3321,'1 ', 2.55000E-2, 7.95000E-2,    0.00000, 0.00000E+0, 0.00000E+0, 0.00000E+0, 0.00000E+0
   220,  4611,'3 ', 7.90000E-3, 2.44000E-2,    0.00000, 0.00000E+0, 0.00000E+0, 0.00000E+0, 0.00000E+0
   300,  2030,'1 ', 3.20000E-3, 1.59000E-2,    0.00000, 0.00000E+0, 0.00000E+0, 0.00000E+0, 0.00000E+0
   300,  2030,'2 ', 3.20000E-3, 1.59000E-2,    0.00000, 0.00000E+0, 0.00000E+0, 0.00000E+0, 0.00000E+0
   410,  1501,'W ', 5.63000E-2, 2.30100E-1,    0.00000, 0.00000E+0, 0.00000E+0, 0.00000E+0, 0.00000E+0
   410,  4001,'W ', 7.90000E-3, 3.25000E-2,    0.00000, 0.00000E+0, 0.00000E+0, 0.00000E+0, 0.00000E+0
   450,  7261,'O ', 2.50000E-3, 8.10000E-3,    0.00000, 0.00000E+0, 0.00000E+0, 0.00000E+0, 0.00000E+0
   450,  7269,'M ', 0.00000E+0, 1.00000E-4,    0.00000, 0.00000E+0, 0.00000E+0, 0.00000E+0, 0.00000E+0
   530,   540,'1 ', 0.00000E+0, 1.00000E-6,    0.00000, 0.00000E+0, 0.00000E+0, 0.00000E+0, 0.00000E+0
   530,  2130,'R ', 2.80000E-3, 3.06000E-2,    0.00000, 0.00000E+0, 0.00000E+0, 0.00000E+0, 0.00000E+0
   530,  2150,'N ', 2.00000E-3, 9.10000E-3,    0.00000, 0.00000E+0, 0.00000E+0, 0.00000E+0, 0.00000E+0
   530,  2150,'S ', 2.00000E-3, 9.10000E-3,    0.00000, 0.00000E+0, 0.00000E+0, 0.00000E+0, 0.00000E+0
   530,  2170,'W ', 1.60000E-3, 1.23000E-2,    0.00000, 0.00000E+0, 0.00000E+0, 0.00000E+0, 0.00000E+0
   530, 60530,'1 ', 1.00000E-4, 3.00000E-4,    0.00000, 0.00000E+0, 0.00000E+0, 0.00000E+0, 0.00000E+0
   540,  2300,'1 ', 1.90000E-3, 8.90000E-3,    0.00000, 0.00000E+0, 0.00000E+0, 0.00000E+0, 0.00000E+0
   540,  2350,'1 ', 1.40000E-3, 4.50000E-3,    0.00000, 0.00000E+0, 0.00000E+0, 0.00000E+0, 0.00000E+0
   540,  2350,'2 ', 1.60000E-3, 4.90000E-3,    0.00000, 0.00000E+0, 0.00000E+0, 0.00000E+0, 0.00000E+0
   540,  2490,'1 ', 1.08000E-2, 3.70000E-2,    0.00000, 0.00000E+0, 0.00000E+0, 0.00000E+0, 0.00000E+0
   540, 60540,'1 ', 2.00000E-4, 3.00000E-4,    0.00000, 0.00000E+0, 0.00000E+0, 0.00000E+0, 0.00000E+0
   600,   610,'1 ', 0.00000E+0, 1.00000E-6,    0.00000, 0.00000E+0, 0.00000E+0, 0.00000E+0, 0.00000E+0
   600,  3411,'1 ', 3.01000E-2, 9.40000E-2,    0.00000, 0.00000E+0, 0.00000E+0, 0.00000E+0, 0.00000E+0
   600,  3411,'2 ', 3.01000E-2, 9.40000E-2,    0.00000, 0.00000E+0, 0.00000E+0, 0.00000E+0, 0.00000E+0
   600,  7650,'M ', 3.69000E-2, 1.15300E-1,    0.00000, 0.00000E+0, 0.00000E+0, 0.00000E+0, 0.00000E+0
   600,  8337,'1 ', 2.70000E-3, 3.10000E-3,    0.00000, 0.00000E+0, 0.00000E+0, 0.00000E+0, 0.00000E+0
   610,  3461,'W ', 3.94000E-2, 1.22600E-1,    0.00000, 0.00000E+0, 0.00000E+0, 0.00000E+0, 0.00000E+0
   610,  5027,'1 ', 1.16000E-2, 4.06000E-2,    0.00000, 0.00000E+0, 0.00000E+0, 0.00000E+0, 0.00000E+0
   610,  7651,'O ', 3.69000E-2, 1.15300E-1,    0.00000, 0.00000E+0, 0.00000E+0, 0.00000E+0, 0.00000E+0
   700,  2480,'1 ', 3.30000E-3, 1.09000E-2,    0.00000, 0.00000E+0, 0.00000E+0, 0.00000E+0, 0.00000E+0
   700,  2480,'2 ', 3.30000E-3, 1.09000E-2,    0.00000, 0.00000E+0, 0.00000E+0, 0.00000E+0, 0.00000E+0
   700,  2480,'3 ', 2.10000E-3, 1.02000E-2,    0.00000, 0.00000E+0, 0.00000E+0, 0.00000E+0, 0.00000E+0
   700,  3000,'1 ', 1.07000E-2, 6.15000E-2,    0.00000, 0.00000E+0, 0.00000E+0, 0.00000E+0, 0.00000E+0
   710,  2490,'1 ', 2.20000E-3, 1.01000E-2,    0.00000, 0.00000E+0, 0.00000E+0, 0.00000E+0, 0.00000E+0
   710,  2490,'2 ', 2.20000E-3, 1.01000E-2,    0.00000, 0.00000E+0, 0.00000E+0, 0.00000E+0, 0.00000E+0
   710,  2490,'3 ', 3.10000E-3, 9.70000E-3,    0.00000, 0.00000E+0, 0.00000E+0, 0.00000E+0, 0.00000E+0
   710,  3000,'1 ', 1.05000E-2, 6.15000E-2,    0.00000, 0.00000E+0, 0.00000E+0, 0.00000E+0, 0.00000E+0
   800,   810,'1 ', 4.00000E-4, 1.40000E-3,    0.00000, 0.00000E+0, 0.00000E+0, 0.00000E+0, 0.00000E+0
   800,   825,'N ', 4.21000E-2, 1.60400E-1,    0.00000, 0.00000E+0, 0.00000E+0, 0.00000E+0, 0.00000E+0
   800,   825,'S ', 4.21000E-2, 1.60400E-1,    0.00000, 0.00000E+0, 0.00000E+0, 0.00000E+0, 0.00000E+0
   800,   840,'N ', 8.55000E-2, 2.67200E-1,    0.00000, 0.00000E+0, 0.00000E+0, 0.00000E+0, 0.00000E+0
   800,   840,'S ', 8.59000E-2, 2.68500E-1,    0.00000, 0.00000E+0, 0.00000E+0, 0.00000E+0, 0.00000E+0
   800,  2201,'N ', 3.96000E-2, 1.23500E-1,    0.00000, 0.00000E+0, 0.00000E+0, 0.00000E+0, 0.00000E+0
   800,  2201,'S ', 3.96000E-2, 1.23500E-1,    0.00000, 0.00000E+0, 0.00000E+0, 0.00000E+0, 0.00000E+0
   800,  5525,'1 ', 1.56000E-2, 5.42000E-2,    0.00000, 0.00000E+0, 0.00000E+0, 0.00000E+0, 0.00000E+0
   800,  7668,'1 ', 1.75000E-2, 5.47000E-2,    0.00000, 0.00000E+0, 0.00000E+0, 0.00000E+0, 0.00000E+0
   850,   860,'M ', 1.00000E-2, 3.16000E-2,    0.00000, 0.00000E+0, 0.00000E+0, 0.00000E+0, 0.00000E+0
   850,   860,'O ', 1.00000E-2, 3.16000E-2,    0.00000, 0.00000E+0, 0.00000E+0, 0.00000E+0, 0.00000E+0
   850,   870,'1 ', 6.15000E-2, 1.84300E-1,    0.00000, 0.00000E+0, 0.00000E+0, 0.00000E+0, 0.00000E+0
   850,  2201,'M ', 5.45000E-2, 1.92500E-1,    0.00000, 0.00000E+0, 0.00000E+0, 0.00000E+0, 0.00000E+0
   850,  2201,'O ', 5.45000E-2, 1.92500E-1,    0.00000, 0.00000E+0, 0.00000E+0, 0.00000E+0, 0.00000E+0
   850,  3481,'1 ', 3.78000E-2, 1.24900E-1,    0.00000, 0.00000E+0, 0.00000E+0, 0.00000E+0, 0.00000E+0
   850,  6009,'M ', 4.64000E-2, 1.50300E-1,    0.00000, 0.00000E+0, 0.00000E+0, 0.00000E+0, 0.00000E+0
   850,  6009,'O ', 4.64000E-2, 1.50300E-1,    0.00000, 0.00000E+0, 0.00000E+0, 0.00000E+0, 0.00000E+0
   870,   874,'1 ', 8.50000E-3, 2.87000E-2,    0.00000, 0.00000E+0, 0.00000E+0, 0.00000E+0, 0.00000E+0
   874,  3481,'1 ', 2.61000E-2, 8.70000E-2,    0.00000, 0.00000E+0, 0.00000E+0, 0.00000E+0, 0.00000E+0
   880,  7650,'M ', 1.09000E-2, 3.83000E-2,    0.00000, 0.00000E+0, 0.00000E+0, 0.00000E+0, 0.00000E+0
   880,  7651,'O ', 1.09000E-2, 3.83000E-2,    0.00000, 0.00000E+0, 0.00000E+0, 0.00000E+0, 0.00000E+0
   880,  7660,'1 ', 2.33000E-2, 8.97000E-2,    0.00000, 0.00000E+0, 0.00000E+0, 0.00000E+0, 0.00000E+0
   880,  7661,'2 ', 2.33000E-2, 8.97000E-2,    0.00000, 0.00000E+0, 0.00000E+0, 0.00000E+0, 0.00000E+0
   890,  5525,'1 ', 9.80000E-3, 3.69000E-2,    0.00000, 0.00000E+0, 0.00000E+0, 0.00000E+0, 0.00000E+0
   890,  7669,'2 ', 5.50000E-3, 1.80000E-2,    0.00000, 0.00000E+0, 0.00000E+0, 0.00000E+0, 0.00000E+0
  1000,  2930,'1 ', 1.88000E-2, 8.67000E-2,    0.00000, 0.00000E+0, 0.00000E+0, 0.00000E+0, 0.00000E+0
  1000,  2950,'1 ', 8.10000E-3, 4.35000E-2,    0.00000, 0.00000E+0, 0.00000E+0, 0.00000E+0, 0.00000E+0
  1000,  2950,'2 ', 8.10000E-3, 4.35000E-2,    0.00000, 0.00000E+0, 0.00000E+0, 0.00000E+0, 0.00000E+0
  1000,  2950,'3 ', 8.20000E-3, 4.38000E-2,    0.00000, 0.00000E+0, 0.00000E+0, 0.00000E+0, 0.00000E+0
  1020,  3921,'1 ', 2.90000E-3, 8.50000E-3,    0.00000, 0.00000E+0, 0.00000E+0, 0.00000E+0, 0.00000E+0
  1020,  3941,'1 ', 5.21000E-2, 1.61900E-1,    0.00000, 0.00000E+0, 0.00000E+0, 0.00000E+0, 0.00000E+0
  1080,  1090,'1 ', 0.00000E+0, 1.00000E-6,    0.00000, 0.00000E+0, 0.00000E+0, 0.00000E+0, 0.00000E+0
  1080,  2650,'1 ', 4.70000E-3, 2.16000E-2,    0.00000, 0.00000E+0, 0.00000E+0, 0.00000E+0, 0.00000E+0
  1080,  2670,'R ', 9.00000E-4, 4.40000E-3,    0.00000, 0.00000E+0, 0.00000E+0, 0.00000E+0, 0.00000E+0
  1080,  2680,'1 ', 0.00000E+0, 1.00000E-4,    0.00000, 0.00000E+0, 0.00000E+0, 0.00000E+0, 0.00000E+0
  1090,  2660,'3 ', 4.70000E-3, 2.16000E-2,    0.00000, 0.00000E+0, 0.00000E+0, 0.00000E+0, 0.00000E+0
  1090,  2670,'W ', 9.00000E-4, 4.30000E-3,    0.00000, 0.00000E+0, 0.00000E+0, 0.00000E+0, 0.00000E+0
  1100,  1110,'1 ', 0.00000E+0, 1.00000E-6,    0.00000, 0.00000E+0, 0.00000E+0, 0.00000E+0, 0.00000E+0
  1100,  1120,'1 ', 0.00000E+0, 1.00000E-6,    0.00000, 0.00000E+0, 0.00000E+0, 0.00000E+0, 0.00000E+0
  1100,  2901,'1 ', 1.64000E-2, 5.89000E-2,    0.00000, 0.00000E+0, 0.00000E+0, 0.00000E+0, 0.00000E+0
  1100,  2901,'2 ', 1.64000E-2, 5.89000E-2,    0.00000, 0.00000E+0, 0.00000E+0, 0.00000E+0, 0.00000E+0
  1100,  3901,'4 ', 8.90000E-3, 2.78000E-2,    0.00000, 0.00000E+0, 0.00000E+0, 0.00000E+0, 0.00000E+0
  1110,  3891,'1 ', 9.20000E-3, 3.31000E-2,    0.00000, 0.00000E+0, 0.00000E+0, 0.00000E+0, 0.00000E+0
  1110,  3891,'2 ', 9.20000E-3, 3.31000E-2,    0.00000, 0.00000E+0, 0.00000E+0, 0.00000E+0, 0.00000E+0
  1110,  3891,'3 ', 9.10000E-3, 3.27000E-2,    0.00000, 0.00000E+0, 0.00000E+0, 0.00000E+0, 0.00000E+0
  1120,  3881,'1 ', 1.20000E-3, 1.30000E-3,    0.00000, 0.00000E+0, 0.00000E+0, 0.00000E+0, 0.00000E+0
  1120,  3881,'2 ', 1.10000E-3, 1.20000E-3,    0.00000, 0.00000E+0, 0.00000E+0, 0.00000E+0, 0.00000E+0
  1120,  8700,'R ', 6.00000E-4, 7.00000E-4,    0.00000, 0.00000E+0, 0.00000E+0, 0.00000E+0, 0.00000E+0
  1120,  8700,'W ', 6.00000E-4, 7.00000E-4,    0.00000, 0.00000E+0, 0.00000E+0, 0.00000E+0, 0.00000E+0
  1200,  1210,'1 ', 0.00000E+0, 1.00000E-6,    0.00000, 0.00000E+0, 0.00000E+0, 0.00000E+0, 0.00000E+0
  1200,  2851,'1 ', 3.50000E-3, 6.20000E-3,    0.00000, 0.00000E+0, 0.00000E+0, 0.00000E+0, 0.00000E+0
  1200,  2851,'2 ', 2.20000E-3, 3.80000E-3,    0.00000, 0.00000E+0, 0.00000E+0, 0.00000E+0, 0.00000E+0
  1200,  6361,'1 ', 3.10000E-3, 4.80000E-3,    0.00000, 0.00000E+0, 0.00000E+0, 0.00000E+0, 0.00000E+0
  1200,  6367,'1 ', 2.10000E-3, 1.80000E-3,    0.00000, 0.00000E+0, 0.00000E+0, 0.00000E+0, 0.00000E+0
  1210,  6319,'1 ', 1.00000E-4, 2.00000E-4,    0.00000, 0.00000E+0, 0.00000E+0, 0.00000E+0, 0.00000E+0
  1210,  6319,'2 ', 1.00000E-4, 1.00000E-4,    0.00000, 0.00000E+0, 0.00000E+0, 0.00000E+0, 0.00000E+0
  1210,  6319,'3 ', 1.00000E-4, 1.00000E-4,    0.00000, 0.00000E+0, 0.00000E+0, 0.00000E+0, 0.00000E+0
  1500,  1650,'1 ', 8.70000E-3, 4.02000E-2,    0.00000, 0.00000E+0, 0.00000E+0, 0.00000E+0, 0.00000E+0
  1500,  1650,'2 ', 8.70000E-3, 4.02000E-2,    0.00000, 0.00000E+0, 0.00000E+0, 0.00000E+0, 0.00000E+0
  1500,  9410,'R ', 7.80000E-3, 4.28000E-2,    0.00000, 0.00000E+0, 0.00000E+0, 0.00000E+0, 0.00000E+0
  1500,  9410,'W ', 7.70000E-3, 4.27000E-2,    0.00000, 0.00000E+0, 0.00000E+0, 0.00000E+0, 0.00000E+0
  1501,  3101,'M ', 6.60000E-3, 2.71000E-2,    0.00000, 0.00000E+0, 0.00000E+0, 0.00000E+0, 0.00000E+0
  1501,  3101,'O ', 6.60000E-3, 2.71000E-2,    0.00000, 0.00000E+0, 0.00000E+0, 0.00000E+0, 0.00000E+0
  1501,  4001,'R ', 4.90000E-2, 1.98700E-1,    0.00000, 0.00000E+0, 0.00000E+0, 0.00000E+0, 0.00000E+0
  1501,  7263,'M ', 3.10000E-3, 1.27000E-2,    0.00000, 0.00000E+0, 0.00000E+0, 0.00000E+0, 0.00000E+0
  1501,  7264,'O ', 3.20000E-3, 1.28000E-2,    0.00000, 0.00000E+0, 0.00000E+0, 0.00000E+0, 0.00000E+0
  1550,  1700,'R ', 7.20000E-3, 2.24000E-2,    0.00000, 0.00000E+0, 0.00000E+0, 0.00000E+0, 0.00000E+0
  1550,  1700,'W ', 7.20000E-3, 2.24000E-2,    0.00000, 0.00000E+0, 0.00000E+0, 0.00000E+0, 0.00000E+0
  1551,  3131,'1 ', 4.50000E-3, 1.45000E-2,    0.00000, 0.00000E+0, 0.00000E+0, 0.00000E+0, 0.00000E+0
  1551,  3131,'2 ', 4.50000E-3, 1.45000E-2,    0.00000, 0.00000E+0, 0.00000E+0, 0.00000E+0, 0.00000E+0
  1551,  3131,'3 ', 2.00000E-3, 5.70000E-3,    0.00000, 0.00000E+0, 0.00000E+0, 0.00000E+0, 0.00000E+0
  1551,  3131,'4 ', 2.00000E-3, 5.80000E-3,    0.00000, 0.00000E+0, 0.00000E+0, 0.00000E+0, 0.00000E+0
  1551,  3141,'M ', 1.54000E-2, 4.99000E-2,    0.00000, 0.00000E+0, 0.00000E+0, 0.00000E+0, 0.00000E+0
  1551,  3141,'O ', 1.54000E-2, 4.99000E-2,    0.00000, 0.00000E+0, 0.00000E+0, 0.00000E+0, 0.00000E+0
  1551,  4109,'R ', 5.50000E-3, 1.69000E-2,    0.00000, 0.00000E+0, 0.00000E+0, 0.00000E+0, 0.00000E+0
  1551,  4109,'W ', 5.60000E-3, 1.69000E-2,    0.00000, 0.00000E+0, 0.00000E+0, 0.00000E+0, 0.00000E+0
  1551,  7530,'M ', 1.28000E-2, 4.43000E-2,    0.00000, 0.00000E+0, 0.00000E+0, 0.00000E+0, 0.00000E+0
  1551,  7534,'O ', 1.28000E-2, 4.43000E-2,    0.00000, 0.00000E+0, 0.00000E+0, 0.00000E+0, 0.00000E+0
  1580,  1750,'1 ', 3.40000E-3, 1.57000E-2,    0.00000, 0.00000E+0, 0.00000E+0, 0.00000E+0, 0.00000E+0
  1580,  1750,'2 ', 3.40000E-3, 1.57000E-2,    0.00000, 0.00000E+0, 0.00000E+0, 0.00000E+0, 0.00000E+0
  1581,  4161,'1 ', 3.90000E-3, 4.50000E-3,    0.00000, 0.00000E+0, 0.00000E+0, 0.00000E+0, 0.00000E+0
  1581,  4161,'2 ', 3.90000E-3, 4.50000E-3,    0.00000, 0.00000E+0, 0.00000E+0, 0.00000E+0, 0.00000E+0
  1581,  8060,'1 ', 1.10000E-3, 1.20000E-3,    0.00000, 0.00000E+0, 0.00000E+0, 0.00000E+0, 0.00000E+0
  1581,  8060,'2 ', 1.10000E-3, 1.20000E-3,    0.00000, 0.00000E+0, 0.00000E+0, 0.00000E+0, 0.00000E+0
  1582,  4207,'2 ', 2.50000E-3, 2.90000E-3,    0.00000, 0.00000E+0, 0.00000E+0, 0.00000E+0, 0.00000E+0
  1582,  4213,'1 ', 7.20000E-3, 8.40000E-3,    0.00000, 0.00000E+0, 0.00000E+0, 0.00000E+0, 0.00000E+0
  1591,  4143,'R ', 1.90000E-3, 5.30000E-3,    0.00000, 0.00000E+0, 0.00000E+0, 0.00000E+0, 0.00000E+0
  1591,  4143,'W ', 1.90000E-3, 5.80000E-3,    0.00000, 0.00000E+0, 0.00000E+0, 0.00000E+0, 0.00000E+0
  1591,  4255,'1 ', 4.00000E-4, 4.00000E-4,    0.00000, 0.00000E+0, 0.00000E+0, 0.00000E+0, 0.00000E+0
  1591,  4265,'1 ', 3.00000E-4, 8.00000E-4,    0.00000, 0.00000E+0, 0.00000E+0, 0.00000E+0, 0.00000E+0
  1591,  4275,'1 ', 2.00000E-4, 3.00000E-4,    0.00000, 0.00000E+0, 0.00000E+0, 0.00000E+0, 0.00000E+0
  1591,  7515,'R ', 1.70000E-3, 5.10000E-3,    0.00000, 0.00000E+0, 0.00000E+0, 0.00000E+0, 0.00000E+0
  1591,  7516,'W ', 1.90000E-3, 5.20000E-3,    0.00000, 0.00000E+0, 0.00000E+0, 0.00000E+0, 0.00000E+0
  1591,  7517,'2 ', 4.00000E-4, 4.00000E-4,    0.00000, 0.00000E+0, 0.00000E+0, 0.00000E+0, 0.00000E+0
  1601,  4425,'W ', 9.00000E-4, 9.00000E-4,    0.00000, 0.00000E+0, 0.00000E+0, 0.00000E+0, 0.00000E+0
  1601,  4427,'R ', 1.30000E-3, 1.30000E-3,    0.00000, 0.00000E+0, 0.00000E+0, 0.00000E+0, 0.00000E+0
  1601,  7119,'1 ', 1.20000E-3, 1.50000E-3,    0.00000, 0.00000E+0, 0.00000E+0, 0.00000E+0, 0.00000E+0
  1601,  7559,'1 ', 0.00000E+0, 1.00000E-6,    0.00000, 0.00000E+0, 0.00000E+0, 0.00000E+0, 0.00000E+0
  1601,  7585,'1 ', 1.20000E-3, 1.30000E-3,    0.00000, 0.00000E+0, 0.00000E+0, 0.00000E+0, 0.00000E+0
  1601,  8101,'1 ', 5.00000E-4, 1.00000E-3,    0.00000, 0.00000E+0, 0.00000E+0, 0.00000E+0, 0.00000E+0
  1601,  8101,'2 ', 4.00000E-4, 1.00000E-3,    0.00000, 0.00000E+0, 0.00000E+0, 0.00000E+0, 0.00000E+0
  1650,  1700,'R ', 5.20000E-3, 1.62000E-2,    0.00000, 0.00000E+0, 0.00000E+0, 0.00000E+0, 0.00000E+0
  1650,  1700,'W ', 5.20000E-3, 1.62000E-2,    0.00000, 0.00000E+0, 0.00000E+0, 0.00000E+0, 0.00000E+0
  1651,  3221,'M ', 9.40000E-3, 4.01000E-2,    0.00000, 0.00000E+0, 0.00000E+0, 0.00000E+0, 0.00000E+0
  1651,  7550,'1 ', 7.10000E-3, 2.21000E-2,    0.00460, 0.00000E+0, 0.00000E+0, 0.00000E+0, 0.00000E+0
  1651,  7551,'2 ', 7.10000E-3, 2.21000E-2,    0.00460, 0.00000E+0, 0.00000E+0, 0.00000E+0, 0.00000E+0
  1651,  7570,'O ', 4.20000E-3, 1.87000E-2,    0.00000, 0.00000E+0, 0.00000E+0, 0.00000E+0, 0.00000E+0
  1651,  7573,'1 ', 8.80000E-3, 3.19000E-2,    0.00000, 0.00000E+0, 0.00000E+0, 0.00000E+0, 0.00000E+0
  1651,  7574,'2 ', 8.80000E-3, 3.20000E-3,    0.00000, 0.00000E+0, 0.00000E+0, 0.00000E+0, 0.00000E+0
  1651,  8140,'R ', 6.50000E-3, 2.10000E-2,    0.00000, 0.00000E+0, 0.00000E+0, 0.00000E+0, 0.00000E+0
  1651,  8140,'W ', 6.50000E-3, 2.10000E-2,    0.00000, 0.00000E+0, 0.00000E+0, 0.00000E+0, 0.00000E+0
  1700,  1900,'M ', 1.11000E-2, 3.70000E-2,    0.00000, 0.00000E+0, 0.00000E+0, 0.00000E+0, 0.00000E+0
  1700,  1900,'O ', 1.11000E-2, 3.70000E-2,    0.00000, 0.00000E+0, 0.00000E+0, 0.00000E+0, 0.00000E+0
  1701,  4353,'1 ', 4.20000E-3, 1.29000E-2,    0.00000, 0.00000E+0, 0.00000E+0, 0.00000E+0, 0.00000E+0
  1701,  4357,'1 ', 8.00000E-3, 2.04000E-2,    0.00000, 0.00000E+0, 0.00000E+0, 0.00000E+0, 0.00000E+0
  1701,  4551,'1 ', 1.00000E-2, 2.94000E-2,    0.00000, 0.00000E+0, 0.00000E+0, 0.00000E+0, 0.00000E+0
  1701,  4551,'2 ', 1.00000E-2, 2.94000E-2,    0.00000, 0.00000E+0, 0.00000E+0, 0.00000E+0, 0.00000E+0
  1701,  4554,'M ', 5.00000E-3, 1.67000E-2,    0.04610, 0.00000E+0, 0.00000E+0, 0.00000E+0, 0.00000E+0
  1701,  4554,'O ', 5.70000E-3, 1.75000E-2,    0.05000, 0.00000E+0, 0.00000E+0, 0.00000E+0, 0.00000E+0
  1701,  4573,'R ', 5.20000E-3, 1.67000E-2,    0.00000, 0.00000E+0, 0.00000E+0, 0.00000E+0, 0.00000E+0
  1701,  4573,'W ', 8.00000E-4, 9.00000E-4,    0.00000, 0.00000E+0, 0.00000E+0, 0.00000E+0, 0.00000E+0
  1701,  4575,'1 ', 1.80000E-3, 1.60000E-3,    0.00000, 0.00000E+0, 0.00000E+0, 0.00000E+0, 0.00000E+0
  1701,  4903,'M ', 1.85000E-2, 6.34000E-2,    0.00000, 0.00000E+0, 0.00000E+0, 0.00000E+0, 0.00000E+0
  1701,  4903,'O ', 1.85000E-2, 6.33000E-2,    0.00000, 0.00000E+0, 0.00000E+0, 0.00000E+0, 0.00000E+0
  1701,  7563,'R ', 1.60000E-2, 4.08000E-2,    0.00000, 0.00000E+0, 0.00000E+0, 0.00000E+0, 0.00000E+0
  1701,  7564,'W ', 1.55000E-2, 4.07000E-2,    0.00000, 0.00000E+0, 0.00000E+0, 0.00000E+0, 0.00000E+0
  1750,  1910,'R ', 8.60000E-3, 2.68000E-2,    0.00000, 0.00000E+0, 0.00000E+0, 0.00000E+0, 0.00000E+0
  1750,  1910,'W ', 8.60000E-3, 2.68000E-2,    0.00000, 0.00000E+0, 0.00000E+0, 0.00000E+0, 0.00000E+0
  1750,  9160,'1 ', 1.00000E-3, 3.80000E-3,    0.00000, 0.00000E+0, 0.00000E+0, 0.00000E+0, 0.00000E+0
  1750,  9160,'2 ', 1.00000E-3, 3.70000E-3,    0.00000, 0.00000E+0, 0.00000E+0, 0.00000E+0, 0.00000E+0
  1751,  4603,'R ', 1.10000E-3, 7.00000E-4,    0.00000, 0.00000E+0, 0.00000E+0, 0.00000E+0, 0.00000E+0
  1751,  4603,'W ', 2.00000E-4, 3.00000E-4,    0.17720, 0.00000E+0, 0.00000E+0, 0.00000E+0, 0.00000E+0
  1751,  4611,'M ', 5.50000E-3, 1.81000E-2,    0.00000, 0.00000E+0, 0.00000E+0, 0.00000E+0, 0.00000E+0
  1751,  4611,'O ', 5.80000E-3, 1.83000E-2,    0.00000, 0.00000E+0, 0.00000E+0, 0.00000E+0, 0.00000E+0
  1751,  4901,'1 ', 5.70000E-3, 2.22000E-2,    0.00000, 0.00000E+0, 0.00000E+0, 0.00000E+0, 0.00000E+0
  1751,  4905,'2 ', 5.70000E-3, 2.22000E-2,    0.00000, 0.00000E+0, 0.00000E+0, 0.00000E+0, 0.00000E+0
  1751,  7604,'1 ', 4.60000E-3, 1.87000E-2,    0.00000, 0.00000E+0, 0.00000E+0, 0.00000E+0, 0.00000E+0
  1751,  7605,'2 ', 4.60000E-3, 1.87000E-2,    0.00000, 0.00000E+0, 0.00000E+0, 0.00000E+0, 0.00000E+0
  1761,  3301,'1 ', 8.40000E-3, 3.18000E-2,    0.00000, 0.00000E+0, 0.00000E+0, 0.00000E+0, 0.00000E+0
  1761,  3301,'3 ', 8.50000E-3, 3.18000E-2,    0.00000, 0.00000E+0, 0.00000E+0, 0.00000E+0, 0.00000E+0
  1761,  3301,'4 ', 8.10000E-3, 3.21000E-2,    0.00000, 0.00000E+0, 0.00000E+0, 0.00000E+0, 0.00000E+0
  1761,  4607,'2 ', 9.50000E-3, 3.79000E-2,    0.00000, 0.00000E+0, 0.00000E+0, 0.00000E+0, 0.00000E+0
  1761,  4635,'W ', 1.10000E-3, 4.20000E-3,    0.00000, 0.00000E+0, 0.00000E+0, 0.00000E+0, 0.00000E+0
...
0  / END OF ZERO SEQ. NON-TRANSFORMER BRANCH DATA, BEGIN ZERO SEQ. MUTUAL DATA
   850,  6009,'M ',   850,  6009,'O ', 4.01000E-2, 9.37000E-2, 0.00000, 1.00000, 0.00000, 1.00000
   850,  2201,'M ',   850,  2201,'O ', 4.42000E-2, 1.30900E-1, 0.00000, 1.00000, 0.00000, 1.00000
  3551,  5611,'R ',  3551,  5611,'W ', 1.76000E-2, 5.02000E-2, 0.00000, 1.00000, 0.00000, 1.00000
  2151,  2351,'M ',  2151,  2351,'O ', 1.37000E-2, 3.29000E-2, 0.00000, 1.00000, 0.00000, 1.00000
   700,  2480,'1 ',   700,  2480,'2 ', 2.90000E-3, 6.30000E-3, 0.00000, 1.00000, 0.00000, 1.00000
   700,  3000,'1 ',   710,  3000,'1 ',-8.80000E-3,-3.37000E-2, 0.00000, 1.00000, 0.00000, 1.00000
  2400,  2490,'1 ',  2400,  2490,'2 ', 2.20000E-3, 6.40000E-3, 0.00000, 1.00000, 0.00000, 1.00000
  2350,  2400,'1 ',  2350,  2400,'2 ', 7.50000E-3, 1.75000E-2, 0.00000, 1.00000, 0.00000, 1.00000
   710,  2490,'1 ',   710,  2490,'2 ', 2.00000E-3, 5.70000E-3, 0.00000, 1.00000, 0.00000, 1.00000
   850,   860,'M ',   850,   860,'O ', 7.10000E-3, 2.01000E-2, 0.00000, 1.00000, 0.00000, 1.00000
  2401,  5905,'1 ',  2401,  5905,'2 ', 1.20000E-2, 3.30000E-2, 0.00000, 1.00000, 0.00000, 1.00000
  2351,  7750,'R ',  2351,  7751,'W ', 1.14000E-2, 2.85000E-2, 0.00000, 1.00000, 0.00000, 1.00000
  5851,  7750,'R ',  5851,  7751,'W ', 0.00000E+0, 0.00000E+0, 0.00000, 1.00000, 0.00000, 1.00000
  5853,  7751,'W ',  3551,  5853,'1 ',-3.00000E-4,-8.00000E-4, 0.00000, 1.00000, 0.00000, 1.00000
  3551,  7750,'R ',  3551,  5853,'1 ', 5.10000E-3, 1.21000E-2, 0.00000, 1.00000, 0.00000, 1.00000
  3551,  7750,'R ',  5853,  7751,'W ', 3.00000E-4, 8.00000E-4, 0.00000, 1.00000, 0.00000, 1.00000
  1900,  2100,'M ',  1900,  2100,'O ', 2.25000E-2, 4.84000E-2, 0.00000, 1.00000, 0.00000, 1.00000
  1500,  9410,'W ',  1500,  9410,'R ', 6.90000E-3, 2.36000E-2, 0.00000, 1.00000, 0.00000, 1.00000
  1501,  3101,'M ',  1501,  3101,'O ', 5.60000E-3, 1.55000E-2, 0.00000, 1.00000, 0.00000, 1.00000
  4001,  8011,'R ',  4001,  8011,'W ', 1.80000E-3, 5.30000E-3, 0.00000, 1.00000, 0.00000, 1.00000
  4107,  7515,'R ',  4107,  7516,'W ', 2.00000E-4, 0.00000E+0, 0.00000, 1.00000, 0.00000, 1.00000
  1591,  7515,'R ',  1591,  7516,'W ', 1.10000E-3, 2.90000E-3, 0.00000, 1.00000, 0.00000, 1.00000
  4107,  4203,'R ',  4107,  4203,'W ', 1.00000E-4, 0.00000E+0, 0.00000, 1.00000, 0.00000, 1.00000
  1591,  4255,'1 ',  1591,  7517,'2 ', 2.00000E-4, 0.00000E+0, 0.00000, 1.00000, 0.00000, 1.00000
  1551,  3131,'1 ',  1551,  3131,'2 ', 4.10000E-3, 9.20000E-3, 0.00000, 1.00000, 0.00000, 1.00000
  1551,  3131,'3 ',  1551,  3131,'4 ', 1.50000E-3, 3.40000E-3, 0.00000, 1.00000, 0.00000, 1.00000
  4111,  7513,'M ',  4111,  7514,'O ', 5.00000E-4, 1.40000E-3, 0.00000, 1.00000, 0.00000, 1.00000
  3131,  7513,'M ',  3131,  7514,'O ', 1.70000E-3, 4.00000E-3, 0.00000, 1.00000, 0.00000, 1.00000
  1551,  3141,'M ',  1551,  3141,'O ', 1.36000E-2, 3.17000E-2, 0.00000, 1.00000, 0.00000, 1.00000
  4117,  7511,'M ',  4117,  7512,'O ',-1.86000E-2,-5.46000E-2, 0.00000, 1.00000, 0.00000, 1.00000
  3131,  7511,'M ',  3131,  7512,'O ', 0.00000E+0, 0.00000E+0, 0.00000, 1.00000, 0.00000, 1.00000
  1500,  1650,'1 ',  1500,  1650,'2 ', 7.80000E-3, 2.28000E-2, 0.00000, 1.00000, 0.00000, 1.00000
   100,  1650,'R ',   100,  1650,'W ', 4.70000E-3, 1.05000E-2, 0.00000, 1.00000, 0.00000, 1.00000
  1601,  8101,'1 ',  1601,  8101,'2 ', 4.00000E-4, 7.00000E-4, 0.00000, 1.00000, 0.00000, 1.00000
  1651,  8140,'R ',  1651,  8140,'W ', 5.80000E-3, 1.33000E-2, 0.00000, 1.00000, 0.00000, 1.00000
  1550,  1700,'R ',  1550,  1700,'W ', 5.90000E-3, 1.31000E-2, 0.00000, 1.00000, 0.00000, 1.00000
  1650,  1700,'R ',  1650,  1700,'W ', 4.20000E-3, 9.50000E-3, 0.00000, 1.00000, 0.00000, 1.00000
  4351,  7578,'1 ',  4351,  7579,'2 ', 6.00000E-4, 0.00000E+0, 0.00000, 1.00000, 0.00000, 1.00000
  3221,  7571,'M ',  3221,  7572,'O ', 3.00000E-4, 8.00000E-4, 0.00000, 1.00000, 0.00000, 1.00000
  4403,  7571,'M ',  4403,  7572,'O ', 6.00000E-4, 1.30000E-3, 0.00000, 1.00000, 0.00000, 1.00000
  4359,  7563,'R ',  4359,  7564,'W ', 1.30000E-3, 2.20000E-3, 0.00000, 1.00000, 0.00000, 1.00000
  3201,  7563,'R ',  3201,  7564,'W ', 2.00000E-4, 0.00000E+0, 0.00000, 1.00000, 0.00000, 1.00000
  1701,  7563,'R ',  1701,  7564,'W ', 9.90000E-3, 1.99000E-2, 0.00000, 1.00000, 0.00000, 1.00000
  1701,  4573,'R ',  1701,  4573,'W ', 2.00000E-4, 0.00000E+0, 0.00000, 1.00000, 0.00000, 1.00000
   800,  2201,'N ',   800,  2201,'S ', 3.43000E-2, 7.82000E-2, 0.00000, 1.00000, 0.00000, 1.00000
   530,  2150,'S ',   530,  2150,'N ', 1.80000E-3, 5.10000E-3, 0.00000, 1.00000, 0.00000, 1.00000
  2151,  5657,'R ',  2151,  5657,'W ', 1.00000E-5, 1.00000E-5, 0.00000, 1.00000, 0.00000, 1.00000
  5655,  5657,'R ',  5655,  5657,'W ', 2.00000E-4, 4.00000E-4, 0.00000, 1.00000, 0.00000, 1.00000
  5651,  5653,'1 ',  5651,  5653,'2 ', 1.00000E-4,-1.00000E-4, 0.00000, 1.00000, 0.00000, 1.00000
  3521,  5655,'R ',  3521,  5655,'W ', 6.00000E-4, 7.00000E-4, 0.00000, 1.00000, 0.00000, 1.00000
  2151,  3531,'W ',  2151,  5659,'1 ', 2.51000E-3, 6.80000E-3, 0.00000, 1.00000, 0.00000, 1.00000
  2151,  3531,'W ',  3531,  5659,'1 ', 9.40000E-3, 2.51000E-2, 0.00000, 1.00000, 0.00000, 1.00000
  2151,  5659,'1 ',  3531,  5659,'1 ', 2.00000E-4, 8.00000E-4, 0.00000, 1.00000, 0.00000, 1.00000
  3521,  5665,'1 ',  3521,  5671,'1 ', 2.10000E-4,-3.00000E-5, 0.00000, 1.00000, 0.00000, 1.00000
  5809,  2302,'R ',  5809,  2302,'W ', 6.20000E-3, 1.71000E-2, 0.00000, 1.00000, 0.00000, 1.00000
  7710,  2302,'1 ',  7711,  2302,'2 ', 1.00000E-3, 2.70000E-3, 0.00000, 1.00000, 0.00000, 1.00000
  5819,  7710,'1 ',  5819,  7711,'2 ', 1.50000E-3, 4.10000E-3, 0.00000, 1.00000, 0.00000, 1.00000
  5855,  7710,'1 ',  5817,  7711,'2 ', 7.40000E-3, 2.05000E-2, 0.00000, 1.00000, 0.00000, 1.00000
  2301,  9240,'R ',  2301,  9240,'W ', 1.00000E-4, 4.00000E-4, 0.00000, 1.00000, 0.00000, 1.00000
  1000,  2950,'1 ',  1000,  2950,'2 ', 6.70000E-3, 2.26000E-2, 0.00000, 1.00000, 0.00000, 1.00000
  1080,  2650,'1 ',  1090,  2660,'3 ', 4.20000E-3, 1.23000E-2, 0.00000, 1.00000, 0.00000, 1.00000
  2500,  2600,'2 ',  2600,  2650,'2 ',-2.50000E-3,-7.60000E-3, 0.00000, 1.00000, 0.00000, 1.00000
  2660,  2750,'M ',  2660,  2750,'O ', 6.30000E-3, 1.35000E-2, 0.00000, 1.00000, 0.00000, 1.00000
  2750,  2900,'R ',  2750,  2900,'W ', 4.20000E-3, 9.00000E-3, 0.00000, 1.00000, 0.00000, 1.00000
  2900,  2950,'R ',  2900,  2950,'W ', 5.00000E-3, 1.46000E-2, 0.00000, 1.00000, 0.00000, 1.00000
  2480,  2500,'1 ',  2480,  2500,'2 ', 8.10000E-3, 2.36000E-2, 0.00000, 1.00000, 0.00000, 1.00000
  2480,  9320,'R ',  2480,  9320,'W ', 5.90000E-3, 2.20000E-2, 0.00000, 1.00000, 0.00000, 1.00000
  2500,  9300,'1 ',  2500,  9300,'2 ', 3.50000E-3, 1.65000E-2, 0.00000, 1.00000, 0.00000, 1.00000
  2501,  8500,'1 ',  2501,  8500,'2 ', 1.43000E-2, 3.95000E-2, 0.00000, 1.00000, 0.00000, 1.00000
  2501,  3661,'M ',  2501,  3661,'O ', 2.06000E-2, 4.88000E-2, 0.00000, 1.00000, 0.00000, 1.00000
  2501,  3701,'S ',  2501,  3701,'N ', 2.15000E-2, 5.94000E-2, 0.00000, 1.00000, 0.00000, 1.00000
  2511,  3671,'S ',  2511,  3671,'N ', 6.00000E-3, 1.65000E-2, 0.00000, 1.00000, 0.00000, 1.00000
  2511,  3671,'M ',  2511,  3671,'O ', 7.70000E-3, 1.97000E-2, 0.00000, 1.00000, 0.00000, 1.00000
  2511,  9310,'1 ',  2511,  9310,'2 ', 2.10000E-3, 4.70000E-3, 0.00000, 1.00000, 0.00000, 1.00000
  2601,  6073,'1 ',  2601,  6073,'2 ', 2.10000E-3, 5.90000E-3, 0.00000, 1.00000, 0.00000, 1.00000
  7822,  6095,'1 ',  7823,  6095,'W ', 3.30000E-3, 9.00000E-3, 0.00000, 1.00000, 0.00000, 1.00000
  6063,  7822,'1 ',  6063,  7823,'W ', 1.90000E-3, 5.30000E-3, 0.00000, 1.00000, 0.00000, 1.00000
  3721,  9330,'R ',  3721,  9330,'W ', 1.70000E-3, 3.40000E-3, 0.00000, 1.00000, 0.00000, 1.00000
  3721,  6063,'1 ',  3721,  6063,'2 ', 6.30000E-3, 1.73000E-2, 0.00000, 1.00000, 0.00000, 1.00000
  2651,  3721,'1 ',  2651,  3721,'2 ', 1.94000E-2, 5.57000E-2, 0.00000, 1.00000, 0.00000, 1.00000
  2651,  3761,'M ',  2651,  3761,'O ', 2.40000E-2, 5.46000E-2, 0.00000, 1.00000, 0.00000, 1.00000
  3721,  3761,'O ',  3721,  6105,'1 ', 1.71000E-2, 4.99000E-2, 0.00000, 1.00000, 0.00000, 1.00000
  3721,  6105,'1 ',  3761,  6105,'1 ', 3.00000E-4, 4.00000E-4, 0.00000, 1.00000, 0.00000, 1.00000
  3721,  3761,'O ',  3761,  6105,'1 ',-3.40000E-3,-1.00000E-2, 0.00000, 1.00000, 0.00000, 1.00000
  3671,  7820,'R ',  3671,  7821,'W ', 3.38000E-2, 9.71000E-2, 0.00000, 1.00000, 0.00000, 1.00000
  3681,  7820,'R ',  3681,  7821,'W ', 9.70000E-3, 2.83000E-2, 0.00000, 1.00000, 0.00000, 1.00000
  3721,  7820,'R ',  3721,  7821,'W ', 2.20000E-2, 6.41000E-2, 0.00000, 1.00000, 0.00000, 1.00000
  1020,  3941,'1 ',  3941,  3921,'1 ',-3.89000E-2,-8.85000E-2, 0.00000, 1.00000, 0.00000, 1.00000
  1020,  3941,'1 ',  1020,  3921,'1 ', 1.90000E-3, 4.40000E-3, 0.00000, 1.00000, 0.00000, 1.00000
  3941,  3921,'1 ',  1020,  3921,'1 ', 5.00000E-4, 1.20000E-3, 0.00000, 1.00000, 0.00000, 1.00000
  2951,  3931,'M ',  2951,  3931,'O ', 1.75000E-2, 4.99000E-2, 0.00000, 1.00000, 0.00000, 1.00000
  2951,  3931,'R ',  2951,  3931,'W ', 1.53000E-2, 4.23000E-2, 0.00000, 1.00000, 0.00000, 1.00000
  2951,  3941,'M ',  2951,  3941,'O ', 1.34000E-2, 5.77000E-2, 0.00000, 1.00000, 0.00000, 1.00000
  3931,  6511,'1 ',  3931,  6511,'2 ', 2.90000E-3, 7.80000E-3, 0.00000, 1.00000, 0.00000, 1.00000
  3891,  8702,'1 ',  3891,  8702,'2 ', 1.30000E-3, 3.80000E-3, 0.00000, 1.00000, 0.00000, 1.00000
  8701,  8724,'M ',  8701,  8724,'O ', 5.00000E-4, 1.50000E-3, 0.00000, 1.00000, 0.00000, 1.00000
  1110,  3891,'1 ',  1110,  3891,'2 ', 7.40000E-3, 2.15000E-2, 0.00000, 1.00000, 0.00000, 1.00000
  1100,  3901,'4 ',  1110,  3891,'3 ', 5.80000E-3, 1.51000E-2, 0.00000, 1.00000, 0.00000, 1.00000
  1100,  2901,'1 ',  1100,  2901,'2 ', 1.31000E-2, 3.84000E-2, 0.00000, 1.00000, 0.00000, 1.00000
  2751,  3811,'1 ',  2751,  3811,'2 ', 4.00000E-3, 1.11000E-2, 0.00000, 1.00000, 0.00000, 1.00000
  2751,  3811,'3 ',  2751,  3811,'4 ', 3.10000E-3, 8.50000E-3, 0.00000, 1.00000, 0.00000, 1.00000
  2751,  7853,'M ',  2751,  7854,'O ', 6.90000E-3, 2.13000E-2, 0.00000, 1.00000, 0.00000, 1.00000
  2901,  7853,'M ',  2901,  7854,'O ', 9.60000E-3, 2.78000E-2, 0.00000, 1.00000, 0.00000, 1.00000
  6217,  6219,'M ',  6217,  6219,'O ', 4.00000E-4, 1.10000E-3, 0.00000, 1.00000, 0.00000, 1.00000
  3811,  6161,'R ',  3811,  6161,'W ', 1.00000E-4, 4.00000E-4, 0.00000, 1.00000, 0.00000, 1.00000
  3811,  6207,'R ',  3811,  6207,'W ', 8.00000E-4, 2.10000E-3, 0.00000, 1.00000, 0.00000, 1.00000
  6203,  6207,'R ',  6203,  6207,'W ', 7.50000E-3, 7.40000E-3, 0.00000, 1.00000, 0.00000, 1.00000
  2801,  6311,'R ',  2801,  6311,'W ', 2.80000E-3, 8.00000E-3, 0.00000, 1.00000, 0.00000, 1.00000
  6161,  6165,'R ',  6161,  6165,'W ', 5.00000E-4, 1.30000E-3, 0.00000, 1.00000, 0.00000, 1.00000
  3701,  5943,'1 ',  3701,  5943,'2 ', 1.17000E-2, 3.24000E-2, 0.00000, 1.00000, 0.00000, 1.00000
   600,  7650,'M ',   610,  7651,'O ', 3.20000E-2, 7.30000E-2, 0.00000, 1.00000, 0.00000, 1.00000
  2001,  3421,'R ',  2001,  3421,'W ', 7.40000E-3, 1.44000E-2, 0.00000, 1.00000, 0.00000, 1.00000
  1910,  2000,'3 ',  1910,  2000,'4 ', 3.40000E-3, 1.13000E-2, 0.00000, 1.00000, 0.00000, 1.00000
  4801,  4805,'R ',  4801,  4805,'W ', 1.05000E-2, 2.56000E-2, 0.00000, 1.00000, 0.00000, 1.00000
  1901,  3361,'1 ',  1901,  3361,'2 ', 8.00000E-4, 2.30000E-3, 0.00000, 1.00000, 0.00000, 1.00000
  3361,  4801,'R ',  3361,  4801,'W ', 5.80000E-3, 1.37000E-2, 0.00000, 1.00000, 0.00000, 1.00000
  3321,  9100,'1 ',  3321,  9100,'2 ', 1.40000E-2, 4.02000E-2, 0.00000, 1.00000, 0.00000, 1.00000
  4753,  4755,'R ',  4753,  4755,'W ', 1.40000E-3, 4.00000E-3, 0.00000, 1.00000, 0.00000, 1.00000
  1911,  3371,'1 ',  1911,  3371,'2 ', 1.09000E-2, 3.02000E-2, 0.00000, 1.00000, 0.00000, 1.00000
  3421,  3441,'M ',  3421,  3441,'O ', 1.31000E-2, 3.04000E-2, 0.00000, 1.00000, 0.00000, 1.00000
  2001,  5017,'M ',  2001,  5017,'O ', 7.80000E-3, 2.16000E-2, 0.00000, 1.00000, 0.00000, 1.00000
  1911,  7630,'R ',  1911,  7639,'W ', 1.53000E-2, 3.30000E-2, 0.00000, 1.00000, 0.00000, 1.00000
  3371,  7630,'R ',  3371,  7639,'W ', 4.70000E-3, 1.31000E-2, 0.00000, 1.00000, 0.00000, 1.00000
  4815,  7627,'R ',  4815,  7628,'W ', 8.90000E-3, 2.50000E-2, 0.00000, 1.00000, 0.00000, 1.00000
  1911,  7627,'R ',  1911,  7628,'W ', 1.16000E-2, 3.40000E-2, 0.00000, 1.00000, 0.00000, 1.00000
    10,  1750,'R ',    10,  1750,'W ', 8.20000E-3, 1.84000E-2, 0.00000, 1.00000, 0.00000, 1.00000
  1551,  7534,'O ',  1551,  7530,'M ', 1.00000E-2, 2.86000E-2, 0.00000, 1.00000, 0.00000, 1.00000
  1761,  3301,'1 ',  1761,  4607,'2 ', 3.90000E-3, 1.05000E-2, 0.00000, 0.50000, 0.00000, 1.00000
  1761,  3301,'3 ',  1761,  3301,'4 ', 6.50000E-3, 1.78000E-2, 0.00000, 1.00000, 0.00000, 1.00000
  4625,  7599,'2 ',  4625,  7598,'1 ', 2.60000E-3, 6.10000E-3, 0.00000, 1.00000, 0.00000, 1.00000
  1701,  4551,'1 ',  1701,  4551,'2 ', 6.90000E-3, 2.01000E-2, 0.00000, 1.00000, 0.00000, 1.00000
  3231,  3241,'1 ',  3241,  7587,'2 ',-1.10000E-3,-3.10000E-3, 0.00000, 1.00000, 0.00000, 1.00000
  4505,  4507,'R ',  4505,  4507,'W ', 2.20000E-3, 5.30000E-3, 0.00000, 1.00000, 0.00000, 1.00000
  3241,  3281,'M ',  3241,  3281,'O ', 7.00000E-3, 1.80000E-2, 0.00000, 1.00000, 0.00000, 1.00000
  1751,  4611,'M ',  1751,  4611,'O ', 3.80000E-3, 8.40000E-3, 0.00000, 1.00000, 0.00000, 1.00000
  4635,  4601,'W ',  4637,  4601,'R ', 8.00000E-4, 2.10000E-3, 0.00000, 1.00000, 0.00000, 1.00000
  1761,  3301,'1 ',  3301,  4607,'2 ',-2.50000E-3,-6.90000E-3, 0.50000, 1.00000, 0.00000, 1.00000
   600,  3411,'1 ',   600,  3411,'2 ', 2.61000E-2, 5.95000E-2, 0.00000, 1.00000, 0.00000, 1.00000
   880,  7650,'M ',   880,  7651,'O ', 8.60000E-3, 2.46000E-2, 0.00000, 1.00000, 0.00000, 1.00000
  1120,  3881,'1 ',  1120,  3881,'2 ', 1.00000E-4, 0.00000E+0, 0.00000, 1.00000, 0.00000, 1.00000
  1501,  7263,'M ',  1501,  7264,'O ', 2.50000E-3, 7.10000E-3, 0.00000, 1.00000, 0.00000, 1.00000
  1651,  7550,'1 ',  1651,  7551,'2 ', 5.20000E-3, 1.33000E-2, 0.00000, 1.00000, 0.00000, 1.00000
  3221,  7574,'2 ',  3221,  7573,'1 ', 2.00000E-3, 5.00000E-3, 0.00000, 1.00000, 0.00000, 1.00000
  1651,  3221,'M ',  1651,  7570,'O ', 3.50000E-3, 1.13000E-2, 0.00000, 1.00000, 0.00000, 1.00000
  1651,  3221,'M ',  3221,  7570,'O ',-4.70000E-3,-1.42000E-2, 0.00000, 1.00000, 0.00000, 1.00000
  4307,  7574,'2 ',  4401,  7573,'1 ', 4.00000E-4, 1.00000E-4, 0.00000, 1.00000, 0.00000, 1.00000
  1700,  1900,'M ',  1700,  1900,'O ', 9.90000E-3, 2.14000E-2, 0.00000, 1.00000, 0.00000, 1.00000
  1701,  4554,'M ',  1701,  4554,'O ', 3.70000E-3, 1.06000E-2, 0.00000, 1.00000, 0.00000, 1.00000
  1701,  4903,'M ',  1701,  4903,'O ', 1.45000E-2, 4.06000E-2, 0.00000, 1.00000, 0.00000, 1.00000
  1750,  1910,'R ',  1750,  1910,'W ', 7.00000E-3, 1.57000E-2, 0.00000, 1.00000, 0.00000, 1.00000
  1750,  9160,'1 ',  1750,  9160,'2 ', 8.00000E-4, 1.90000E-3, 0.00000, 1.00000, 0.00000, 1.00000
  1751,  4901,'1 ',  1751,  4905,'2 ', 4.50000E-3, 1.25000E-2, 0.00000, 1.00000, 0.00000, 1.00000
  1911,  9110,'R ',  1911,  9110,'W ', 3.00000E-4, 0.00000E+0, 0.00000, 1.00000, 0.00000, 1.00000
  2001,  5021,'R ',  2001,  5021,'W ', 6.50000E-3, 1.79000E-2, 0.00000, 1.00000, 0.00000, 1.00000
  2001,  7650,'M ',  2001,  7651,'O ', 3.63000E-2, 1.05400E-1, 0.00000, 1.00000, 0.00000, 1.00000
  1761,  4635,'W ',  1761,  4637,'R ', 5.00000E-4, 1.50000E-3, 0.00000, 1.00000, 0.00000, 1.00000
  1851,  4759,'W ',  1851,  4759,'R ', 7.00000E-4, 1.90000E-3, 0.00000, 1.00000, 0.00000, 1.00000
  1861,  3341,'R ',  1861,  3341,'W ', 5.00000E-4, 1.40000E-3, 0.00000, 1.00000, 0.00000, 1.00000
  1871,  4757,'1 ',  1871,  4757,'2 ', 5.00000E-4, 1.10000E-3, 0.00000, 1.00000, 0.00000, 1.00000
  1901,  4819,'1 ',  1901,  4819,'2 ', 3.00000E-3, 8.20000E-3, 0.00000, 1.00000, 0.00000, 1.00000
  2000,  2130,'R ',  2000,  2130,'W ', 1.71000E-2, 2.05000E-2, 0.00000, 1.00000, 0.00000, 1.00000
  1761,  4607,'2 ',  3301,  4607,'2 ', 3.90000E-3, 1.10000E-2, 0.00000, 1.00000, 0.00000, 1.00000
   530,  2130,'R ',  2170,  2130,'W ', 2.00000E-3, 1.22000E-2, 0.00000, 1.00000, 0.00000, 1.00000
  5681,  2131,'R ',  5681,  2131,'W ', 4.70000E-3, 1.30000E-2, 0.00000, 1.00000, 0.00000, 1.00000
...